LIG
       OST02122508393D                            

 20 20  0  0  0  0            999 V2000
   14.5030   17.7260   35.6290 N   0  3  0  0  0  0
   14.6340   17.4680   34.2040 C   0  0  0  0  0  0
   15.9580   16.7510   33.9650 C   0  0  0  0  0  0
   17.0760   17.4970   34.5970 C   0  0  0  0  0  0
   17.8840   18.3940   33.9480 C   0  0  0  0  0  0
   18.7760   18.8660   34.8320 N   0  0  0  0  0  0
   18.5470   18.2880   36.0220 C   0  0  0  0  0  0
   17.5090   17.4570   35.8620 N   0  0  0  0  0  0
   13.5190   16.6000   33.7450 C   0  0  0  0  0  0
   13.0900   16.6000   32.5610 O   0  0  0  0  0  0
   12.9120   15.7440   34.6560 O   0  5  0  0  0  0
   15.4250   17.9670   36.0330 H   0  0  0  0  0  0
   14.1590   16.8270   36.0620 H   0  0  0  0  0  0
   13.7950   18.4920   35.7430 H   0  0  0  0  0  0
   14.6038   18.4166   33.6478 H   0  0  0  0  0  0
   15.9061   15.7413   34.3984 H   0  0  0  0  0  0
   16.1388   16.6903   32.8817 H   0  0  0  0  0  0
   17.8134   18.6774   32.8875 H   0  0  0  0  0  0
   19.5230   19.5620   34.6410 H   0  0  0  0  0  0
   19.1064   18.4638   36.9527 H   0  0  0  0  0  0
  1  2  1  0  0  0
  1 12  1  0  0  0
  1 13  1  0  0  0
  1 14  1  0  0  0
  2  3  1  0  0  0
  2  9  1  0  0  0
  2 15  1  0  0  0
  3  4  1  0  0  0
  3 16  1  0  0  0
  3 17  1  0  0  0
  4  5  2  0  0  0
  4  8  1  0  0  0
  5  6  1  0  0  0
  5 18  1  0  0  0
  6  7  1  0  0  0
  6 19  1  0  0  0
  7  8  2  0  0  0
  7 20  1  0  0  0
  9 10  2  0  0  0
  9 11  1  0  0  0
M  END
$$$$
