LIG
       OST02122508393D                            

 74 79  0  0  0  0            999 V2000
   12.4190    4.5510   -2.7930 O   0  0  0  0  0  0
   12.0190    4.4310   -4.0260 C   0  0  0  0  0  0
   11.1680    3.2690   -4.1990 C   0  0  0  0  0  0
   11.6010    1.9680   -4.3190 C   0  0  0  0  0  0
   10.7390    0.9160   -4.5410 C   0  0  0  0  0  0
    9.3830    1.1340   -4.6520 C   0  0  0  0  0  0
    8.8950    2.4170   -4.5400 C   0  0  0  0  0  0
    9.7790    3.4270   -4.3210 C   0  0  0  0  0  0
   12.4790    5.4060   -4.8800 N   0  0  0  0  0  0
   12.1160    6.7850   -5.0820 C   0  0  0  0  0  0
   11.7080    7.6360   -4.0250 C   0  0  0  0  0  0
   11.1470    7.1340   -2.8800 C   0  0  0  0  0  0
   10.7360    7.9710   -1.8360 C   0  0  0  0  0  0
   10.8730    9.3220   -1.9110 C   0  0  0  0  0  0
   10.4590   10.1350   -0.8630 O   0  0  0  0  0  0
   10.1380   11.4780   -1.1770 C   0  0  0  0  0  0
    9.0670   12.0230   -0.2570 C   0  0  0  0  0  0
    9.7170   13.1580    0.5200 C   0  0  0  0  0  0
    9.0230   13.0220    1.8600 C   0  0  0  0  0  0
    8.8160   11.6130    2.0600 N   0  3  0  0  0  0
    7.8740   11.2800    3.0670 C   0  0  0  0  0  0
    6.8120   10.2970    2.7280 C   0  0  0  0  0  0
    6.3780    9.3930    3.8480 C   0  0  0  0  0  0
    5.5450    8.3930    3.3490 F   0  0  0  0  0  0
    8.6370   11.0000    0.7800 C   0  0  0  0  0  0
   11.4380    9.8270   -3.0690 C   0  0  0  0  0  0
   11.8470    9.0170   -4.1020 C   0  0  0  0  0  0
   11.3500    6.7770   -6.3380 C   0  0  0  0  0  0
   10.0500    7.1170   -6.5250 C   0  0  0  0  0  0
    9.5430    7.0240   -7.8300 C   0  0  0  0  0  0
   10.3100    6.6090   -8.8810 C   0  0  0  0  0  0
    9.8140    6.5130  -10.1870 O   0  0  0  0  0  0
   11.6490    6.2570   -8.6840 C   0  0  0  0  0  0
   12.1520    6.3440   -7.4210 C   0  0  0  0  0  0
   13.5400    5.9540   -7.0840 C   0  0  0  0  0  0
   13.4600    4.9620   -5.9190 C   0  0  0  0  0  0
   13.4910    3.5460   -6.3540 C   0  0  0  0  0  0
   14.6540    4.2220   -5.6000 C   0  0  0  0  0  0
   12.6778    1.7597   -4.2343 H   0  0  0  0  0  0
   11.1366   -0.1058   -4.6303 H   0  0  0  0  0  0
    8.6974    0.2921   -4.8282 H   0  0  0  0  0  0
    7.8172    2.6197   -4.6255 H   0  0  0  0  0  0
    9.3741    4.4460   -4.2327 H   0  0  0  0  0  0
   13.0367    7.3845   -5.1357 H   0  0  0  0  0  0
   11.0164    6.0465   -2.7788 H   0  0  0  0  0  0
   10.2917    7.5255   -0.9337 H   0  0  0  0  0  0
   11.0433   12.0947   -1.0761 H   0  0  0  0  0  0
    9.7553   11.5090   -2.2078 H   0  0  0  0  0  0
    8.1937   12.3179   -0.8574 H   0  0  0  0  0  0
   10.8039   13.0152    0.6111 H   0  0  0  0  0  0
    9.6116   14.1479    0.0520 H   0  0  0  0  0  0
    9.6554   13.4326    2.6610 H   0  0  0  0  0  0
    8.0721   13.5747    1.8784 H   0  0  0  0  0  0
    9.7660   11.2560    2.4300 H   0  0  0  0  0  0
    8.4366   10.8733    3.9203 H   0  0  0  0  0  0
    7.3313   12.2176    3.2580 H   0  0  0  0  0  0
    5.9298   10.8575    2.3851 H   0  0  0  0  0  0
    7.2473    9.6378    1.9626 H   0  0  0  0  0  0
    7.2637    8.9337    4.3112 H   0  0  0  0  0  0
    5.8310    9.9812    4.5996 H   0  0  0  0  0  0
    9.2593   10.0963    0.7020 H   0  0  0  0  0  0
    7.5901   10.6984    0.6283 H   0  0  0  0  0  0
   11.5644   10.9154   -3.1665 H   0  0  0  0  0  0
   12.2904    9.4681   -5.0020 H   0  0  0  0  0  0
    9.4195    7.4518   -5.6881 H   0  0  0  0  0  0
    8.4925    7.2944   -8.0127 H   0  0  0  0  0  0
    8.9380    6.0000  -10.3050 H   0  0  0  0  0  0
   12.2764    5.9204   -9.5225 H   0  0  0  0  0  0
   14.0194    5.4783   -7.9522 H   0  0  0  0  0  0
   14.1376    6.8351   -6.8072 H   0  0  0  0  0  0
   12.8631    2.7941   -5.8536 H   0  0  0  0  0  0
   13.3666    3.0018   -7.3018 H   0  0  0  0  0  0
   14.8697    3.9460   -4.5573 H   0  0  0  0  0  0
   15.7299    4.3582   -5.7843 H   0  0  0  0  0  0
  1  2  2  0  0  0
  2  3  1  0  0  0
  2  9  1  0  0  0
  3  4  2  0  0  0
  3  8  1  0  0  0
  4  5  1  0  0  0
  4 39  1  0  0  0
  5  6  2  0  0  0
  5 40  1  0  0  0
  6  7  1  0  0  0
  6 41  1  0  0  0
  7  8  2  0  0  0
  7 42  1  0  0  0
  8 43  1  0  0  0
  9 10  1  0  0  0
  9 36  1  0  0  0
 10 11  1  0  0  0
 10 28  1  0  0  0
 10 44  1  0  0  0
 11 12  2  0  0  0
 11 27  1  0  0  0
 12 13  1  0  0  0
 12 45  1  0  0  0
 13 14  2  0  0  0
 13 46  1  0  0  0
 14 15  1  0  0  0
 14 26  1  0  0  0
 15 16  1  0  0  0
 16 17  1  0  0  0
 16 47  1  0  0  0
 16 48  1  0  0  0
 17 18  1  0  0  0
 17 25  1  0  0  0
 17 49  1  0  0  0
 18 19  1  0  0  0
 18 50  1  0  0  0
 18 51  1  0  0  0
 19 20  1  0  0  0
 19 52  1  0  0  0
 19 53  1  0  0  0
 20 21  1  0  0  0
 20 25  1  0  0  0
 20 54  1  0  0  0
 21 22  1  0  0  0
 21 55  1  0  0  0
 21 56  1  0  0  0
 22 23  1  0  0  0
 22 57  1  0  0  0
 22 58  1  0  0  0
 23 24  1  0  0  0
 23 59  1  0  0  0
 23 60  1  0  0  0
 25 61  1  0  0  0
 25 62  1  0  0  0
 26 27  2  0  0  0
 26 63  1  0  0  0
 27 64  1  0  0  0
 28 29  2  0  0  0
 28 34  1  0  0  0
 29 30  1  0  0  0
 29 65  1  0  0  0
 30 31  2  0  0  0
 30 66  1  0  0  0
 31 32  1  0  0  0
 31 33  1  0  0  0
 32 67  1  0  0  0
 33 34  2  0  0  0
 33 68  1  0  0  0
 34 35  1  0  0  0
 35 36  1  0  0  0
 35 69  1  0  0  0
 35 70  1  0  0  0
 36 37  1  0  0  0
 36 38  1  0  0  0
 37 38  1  0  0  0
 37 71  1  0  0  0
 37 72  1  0  0  0
 38 73  1  0  0  0
 38 74  1  0  0  0
M  END
$$$$
